
Ketcher 01142019472D 1   1.00000     0.00000     0

 17 18  0     0  0            999 V2000
    5.5292   -5.9811    0.0000 C   0  0  0  0  0  0  0  0  0  0  0  0
    4.6631   -5.4811    0.0000 C   0  0  0  0  0  0  0  0  0  0  0  0
    6.3952   -4.4810    0.0000 C   0  0  0  0  0  0  0  0  0  0  0  0
    6.3952   -5.4811    0.0000 C   0  0  0  0  0  0  0  0  0  0  0  0
    5.5292   -3.9810    0.0000 C   0  0  0  0  0  0  0  0  0  0  0  0
    4.6631   -4.4810    0.0000 C   0  0  0  0  0  0  0  0  0  0  0  0
    7.3462   -5.7900    0.0000 N   0  0  0  0  0  0  0  0  0  0  0  0
    7.9339   -4.9810    0.0000 C   0  0  0  0  0  0  0  0  0  0  0  0
    8.6333   -3.0131    0.0000 C   0  0  0  0  0  0  0  0  0  0  0  0
    7.3462   -4.1721    0.0000 C   0  0  0  0  0  0  0  0  0  0  0  0
    7.6551   -3.2210    0.0000 C   0  0  0  0  0  0  0  0  0  0  0  0
    9.9205   -1.8542    0.0000 C   0  0  0  0  0  0  0  0  0  0  0  0
    8.9423   -2.0621    0.0000 N   0  0  0  0  0  0  0  0  0  0  0  0
   10.5896   -2.5974    0.0000 O   0  0  0  0  0  0  0  0  0  0  0  0
   10.2296   -0.9030    0.0000 C   0  0  0  0  0  0  0  0  0  0  0  0
    3.7971   -3.9810    0.0000 O   0  0  0  0  0  0  0  0  0  0  0  0
    3.7971   -2.9810    0.0000 C   0  0  0  0  0  0  0  0  0  0  0  0
  2  1  1  0     0  0
 10  3  1  0     0  0
  1  4  2  0     0  0
  4  3  1  0     0  0
  4  7  1  0     0  0
  5  3  2  0     0  0
  6  5  1  0     0  0
  2  6  2  0     0  0
 16  6  1  0     0  0
  8  7  1  0     0  0
 10  8  2  0     0  0
 13  9  1  0     0  0
  9 11  1  0     0  0
 11 10  1  0     0  0
 13 12  1  0     0  0
 14 12  2  0     0  0
 15 12  1  0     0  0
 16 17  1  0     0  0
M  END
> <ID>
CHEBI:16796

> <NAME>
melatonin

> <DEFINITION>
A member of the class of  acetamides that is acetamide in which one of the hydrogens attached to the nitrogen atom is replaced by a 2-(5-methoxy-1H-indol-3-yl)ethyl group. It is a hormone secreted by the pineal gland in humans.

> <STAR>
3

> <SECONDARY_ID>
CHEBI:6730; CHEBI:25180; CHEBI:14577

> <SYNONYM>
N-Acetyl-5-methoxytryptamine; N-[2-(5-methoxyindol-3-yl)ethyl]acetamide; melatonine; melatonin; Melatonin; 5-methoxy-N-acetyltryptamine

> <IUPAC_NAME>
N-[2-(5-methoxy-1H-indol-3-yl)ethyl]acetamide

> <FORMULA>
C13H16N2O2

> <MASS>
232.283

> <MONOISOTOPIC_MASS>
232.12118

> <CHARGE>
0

> <SMILES>
C=1C=C(C=C2C(=CNC12)CCNC(=O)C)OC

> <INCHI>
InChI=1S/C13H16N2O2/c1-9(16)14-6-5-10-8-15-13-4-3-11(17-2)7-12(10)13/h3-4,7-8,15H,5-6H2,1-2H3,(H,14,16)

> <INCHIKEY>
DRLFMBDRBRZALE-UHFFFAOYSA-N

> <BEILSTEIN_REGISTRY_NUMBER>
205542

> <CAS_REGISTRY_NUMBER>
73-31-4

> <REAXYS_REGISTRY_NUMBER>
205542

> <CHEMIDPLUS>
73-31-4

> <DRUGBANK_ACCESSION>
DB01065

> <KEGG_COMPOUND_ACCESSION>
C01598

> <KEGG_DRUG_ACCESSION>
D08170

> <LINCS_ACCESSION>
LSM-4779

> <METACYC_ACCESSION>
N-ACETYL-5-METHOXY-TRYPTAMINE

> <NIST_CHEMISTRY_WEBBOOK>
73-31-4

> <PDBECHEM_ACCESSION>
ML1

> <WIKIPEDIA_ACCESSION>
Melatonin

> <PUBMED_CITATION>
16678784; 18212404; 18485664; 8290600

$$$$
